
---------- Begin Simulation Statistics ----------
sim_seconds                                  0.270550                       # Number of seconds simulated
sim_ticks                                270549966500                       # Number of ticks simulated
final_tick                               270549966500                       # Number of ticks from beginning of simulation (restored from checkpoints and never reset)
sim_freq                                 1000000000000                       # Frequency of simulated ticks
host_inst_rate                                1447254                       # Simulator instruction rate (inst/s)
host_op_rate                                  2371366                       # Simulator op (including micro ops) rate (op/s)
host_tick_rate                              443660591                       # Simulator tick rate (ticks/s)
host_mem_usage                                8712596                       # Number of bytes of host memory used
host_seconds                                   609.81                       # Real time elapsed on the host
sim_insts                                   882554230                       # Number of instructions simulated
sim_ops                                    1446089366                       # Number of ops (including micro ops) simulated
system.voltage_domain.voltage                       1                       # Voltage in Volts
system.clk_domain.clock                          1000                       # Clock period in ticks
system.mem_ctrls.pwrStateResidencyTicks::UNDEFINED 270549966500                       # Cumulative time (in ticks) in various power states
system.mem_ctrls.bytes_read::.cpu0.inst        157248                       # Number of bytes read from this memory
system.mem_ctrls.bytes_read::.cpu0.data      14262144                       # Number of bytes read from this memory
system.mem_ctrls.bytes_read::.cpu1.inst         16960                       # Number of bytes read from this memory
system.mem_ctrls.bytes_read::.cpu1.data        172352                       # Number of bytes read from this memory
system.mem_ctrls.bytes_read::.cpu2.inst          2432                       # Number of bytes read from this memory
system.mem_ctrls.bytes_read::.cpu2.data        150720                       # Number of bytes read from this memory
system.mem_ctrls.bytes_read::.cpu3.inst           832                       # Number of bytes read from this memory
system.mem_ctrls.bytes_read::.cpu3.data        189632                       # Number of bytes read from this memory
system.mem_ctrls.bytes_read::.cpu4.inst          1664                       # Number of bytes read from this memory
system.mem_ctrls.bytes_read::.cpu4.data        151936                       # Number of bytes read from this memory
system.mem_ctrls.bytes_read::total           15105920                       # Number of bytes read from this memory
system.mem_ctrls.bytes_inst_read::.cpu0.inst       157248                       # Number of instructions bytes read from this memory
system.mem_ctrls.bytes_inst_read::.cpu1.inst        16960                       # Number of instructions bytes read from this memory
system.mem_ctrls.bytes_inst_read::.cpu2.inst         2432                       # Number of instructions bytes read from this memory
system.mem_ctrls.bytes_inst_read::.cpu3.inst          832                       # Number of instructions bytes read from this memory
system.mem_ctrls.bytes_inst_read::.cpu4.inst         1664                       # Number of instructions bytes read from this memory
system.mem_ctrls.bytes_inst_read::total        179136                       # Number of instructions bytes read from this memory
system.mem_ctrls.bytes_written::.writebacks     10100672                       # Number of bytes written to this memory
system.mem_ctrls.bytes_written::total        10100672                       # Number of bytes written to this memory
system.mem_ctrls.num_reads::.cpu0.inst           2457                       # Number of read requests responded to by this memory
system.mem_ctrls.num_reads::.cpu0.data         222846                       # Number of read requests responded to by this memory
system.mem_ctrls.num_reads::.cpu1.inst            265                       # Number of read requests responded to by this memory
system.mem_ctrls.num_reads::.cpu1.data           2693                       # Number of read requests responded to by this memory
system.mem_ctrls.num_reads::.cpu2.inst             38                       # Number of read requests responded to by this memory
system.mem_ctrls.num_reads::.cpu2.data           2355                       # Number of read requests responded to by this memory
system.mem_ctrls.num_reads::.cpu3.inst             13                       # Number of read requests responded to by this memory
system.mem_ctrls.num_reads::.cpu3.data           2963                       # Number of read requests responded to by this memory
system.mem_ctrls.num_reads::.cpu4.inst             26                       # Number of read requests responded to by this memory
system.mem_ctrls.num_reads::.cpu4.data           2374                       # Number of read requests responded to by this memory
system.mem_ctrls.num_reads::total              236030                       # Number of read requests responded to by this memory
system.mem_ctrls.num_writes::.writebacks       157823                       # Number of write requests responded to by this memory
system.mem_ctrls.num_writes::total             157823                       # Number of write requests responded to by this memory
system.mem_ctrls.bw_read::.cpu0.inst           581216                       # Total read bandwidth from this memory (bytes/s)
system.mem_ctrls.bw_read::.cpu0.data         52715379                       # Total read bandwidth from this memory (bytes/s)
system.mem_ctrls.bw_read::.cpu1.inst            62687                       # Total read bandwidth from this memory (bytes/s)
system.mem_ctrls.bw_read::.cpu1.data           637043                       # Total read bandwidth from this memory (bytes/s)
system.mem_ctrls.bw_read::.cpu2.inst             8989                       # Total read bandwidth from this memory (bytes/s)
system.mem_ctrls.bw_read::.cpu2.data           557087                       # Total read bandwidth from this memory (bytes/s)
system.mem_ctrls.bw_read::.cpu3.inst             3075                       # Total read bandwidth from this memory (bytes/s)
system.mem_ctrls.bw_read::.cpu3.data           700913                       # Total read bandwidth from this memory (bytes/s)
system.mem_ctrls.bw_read::.cpu4.inst             6150                       # Total read bandwidth from this memory (bytes/s)
system.mem_ctrls.bw_read::.cpu4.data           561582                       # Total read bandwidth from this memory (bytes/s)
system.mem_ctrls.bw_read::total              55834123                       # Total read bandwidth from this memory (bytes/s)
system.mem_ctrls.bw_inst_read::.cpu0.inst       581216                       # Instruction read bandwidth from this memory (bytes/s)
system.mem_ctrls.bw_inst_read::.cpu1.inst        62687                       # Instruction read bandwidth from this memory (bytes/s)
system.mem_ctrls.bw_inst_read::.cpu2.inst         8989                       # Instruction read bandwidth from this memory (bytes/s)
system.mem_ctrls.bw_inst_read::.cpu3.inst         3075                       # Instruction read bandwidth from this memory (bytes/s)
system.mem_ctrls.bw_inst_read::.cpu4.inst         6150                       # Instruction read bandwidth from this memory (bytes/s)
system.mem_ctrls.bw_inst_read::total           662118                       # Instruction read bandwidth from this memory (bytes/s)
system.mem_ctrls.bw_write::.writebacks       37333850                       # Write bandwidth from this memory (bytes/s)
system.mem_ctrls.bw_write::total             37333850                       # Write bandwidth from this memory (bytes/s)
system.mem_ctrls.bw_total::.writebacks       37333850                       # Total bandwidth to/from this memory (bytes/s)
system.mem_ctrls.bw_total::.cpu0.inst          581216                       # Total bandwidth to/from this memory (bytes/s)
system.mem_ctrls.bw_total::.cpu0.data        52715379                       # Total bandwidth to/from this memory (bytes/s)
system.mem_ctrls.bw_total::.cpu1.inst           62687                       # Total bandwidth to/from this memory (bytes/s)
system.mem_ctrls.bw_total::.cpu1.data          637043                       # Total bandwidth to/from this memory (bytes/s)
system.mem_ctrls.bw_total::.cpu2.inst            8989                       # Total bandwidth to/from this memory (bytes/s)
system.mem_ctrls.bw_total::.cpu2.data          557087                       # Total bandwidth to/from this memory (bytes/s)
system.mem_ctrls.bw_total::.cpu3.inst            3075                       # Total bandwidth to/from this memory (bytes/s)
system.mem_ctrls.bw_total::.cpu3.data          700913                       # Total bandwidth to/from this memory (bytes/s)
system.mem_ctrls.bw_total::.cpu4.inst            6150                       # Total bandwidth to/from this memory (bytes/s)
system.mem_ctrls.bw_total::.cpu4.data          561582                       # Total bandwidth to/from this memory (bytes/s)
system.mem_ctrls.bw_total::total             93167973                       # Total bandwidth to/from this memory (bytes/s)
system.mem_ctrls.priorityMinLatency      0.000000000000                       # per QoS priority minimum request to response latency (s)
system.mem_ctrls.priorityMaxLatency      0.000000000000                       # per QoS priority maximum request to response latency (s)
system.mem_ctrls.numReadWriteTurnArounds            0                       # Number of turnarounds from READ to WRITE
system.mem_ctrls.numWriteReadTurnArounds            0                       # Number of turnarounds from WRITE to READ
system.mem_ctrls.numStayReadState                   0                       # Number of times bus staying in READ state
system.mem_ctrls.numStayWriteState                  0                       # Number of times bus staying in WRITE state
system.mem_ctrls.readReqs                           0                       # Number of read requests accepted
system.mem_ctrls.writeReqs                          0                       # Number of write requests accepted
system.mem_ctrls.readBursts                         0                       # Number of DRAM read bursts, including those serviced by the write queue
system.mem_ctrls.writeBursts                        0                       # Number of DRAM write bursts, including those merged in the write queue
system.mem_ctrls.bytesReadDRAM                      0                       # Total number of bytes read from DRAM
system.mem_ctrls.bytesReadWrQ                       0                       # Total number of bytes read from write queue
system.mem_ctrls.bytesWritten                       0                       # Total number of bytes written to DRAM
system.mem_ctrls.bytesReadSys                       0                       # Total read bytes from the system interface side
system.mem_ctrls.bytesWrittenSys                    0                       # Total written bytes from the system interface side
system.mem_ctrls.servicedByWrQ                      0                       # Number of DRAM read bursts serviced by the write queue
system.mem_ctrls.mergedWrBursts                     0                       # Number of DRAM write bursts merged with an existing one
system.mem_ctrls.neitherReadNorWriteReqs            0                       # Number of requests that are neither read nor write
system.mem_ctrls.perBankRdBursts::0                 0                       # Per bank write bursts
system.mem_ctrls.perBankRdBursts::1                 0                       # Per bank write bursts
system.mem_ctrls.perBankRdBursts::2                 0                       # Per bank write bursts
system.mem_ctrls.perBankRdBursts::3                 0                       # Per bank write bursts
system.mem_ctrls.perBankRdBursts::4                 0                       # Per bank write bursts
system.mem_ctrls.perBankRdBursts::5                 0                       # Per bank write bursts
system.mem_ctrls.perBankRdBursts::6                 0                       # Per bank write bursts
system.mem_ctrls.perBankRdBursts::7                 0                       # Per bank write bursts
system.mem_ctrls.perBankRdBursts::8                 0                       # Per bank write bursts
system.mem_ctrls.perBankRdBursts::9                 0                       # Per bank write bursts
system.mem_ctrls.perBankRdBursts::10                0                       # Per bank write bursts
system.mem_ctrls.perBankRdBursts::11                0                       # Per bank write bursts
system.mem_ctrls.perBankRdBursts::12                0                       # Per bank write bursts
system.mem_ctrls.perBankRdBursts::13                0                       # Per bank write bursts
system.mem_ctrls.perBankRdBursts::14                0                       # Per bank write bursts
system.mem_ctrls.perBankRdBursts::15                0                       # Per bank write bursts
system.mem_ctrls.perBankWrBursts::0                 0                       # Per bank write bursts
system.mem_ctrls.perBankWrBursts::1                 0                       # Per bank write bursts
system.mem_ctrls.perBankWrBursts::2                 0                       # Per bank write bursts
system.mem_ctrls.perBankWrBursts::3                 0                       # Per bank write bursts
system.mem_ctrls.perBankWrBursts::4                 0                       # Per bank write bursts
system.mem_ctrls.perBankWrBursts::5                 0                       # Per bank write bursts
system.mem_ctrls.perBankWrBursts::6                 0                       # Per bank write bursts
system.mem_ctrls.perBankWrBursts::7                 0                       # Per bank write bursts
system.mem_ctrls.perBankWrBursts::8                 0                       # Per bank write bursts
system.mem_ctrls.perBankWrBursts::9                 0                       # Per bank write bursts
system.mem_ctrls.perBankWrBursts::10                0                       # Per bank write bursts
system.mem_ctrls.perBankWrBursts::11                0                       # Per bank write bursts
system.mem_ctrls.perBankWrBursts::12                0                       # Per bank write bursts
system.mem_ctrls.perBankWrBursts::13                0                       # Per bank write bursts
system.mem_ctrls.perBankWrBursts::14                0                       # Per bank write bursts
system.mem_ctrls.perBankWrBursts::15                0                       # Per bank write bursts
system.mem_ctrls.numRdRetry                         0                       # Number of times read queue was full causing retry
system.mem_ctrls.numWrRetry                         0                       # Number of times write queue was full causing retry
system.mem_ctrls.totGap                             0                       # Total gap between requests
system.mem_ctrls.readPktSize::0                     0                       # Read request sizes (log2)
system.mem_ctrls.readPktSize::1                     0                       # Read request sizes (log2)
system.mem_ctrls.readPktSize::2                     0                       # Read request sizes (log2)
system.mem_ctrls.readPktSize::3                     0                       # Read request sizes (log2)
system.mem_ctrls.readPktSize::4                     0                       # Read request sizes (log2)
system.mem_ctrls.readPktSize::5                     0                       # Read request sizes (log2)
system.mem_ctrls.readPktSize::6                     0                       # Read request sizes (log2)
system.mem_ctrls.writePktSize::0                    0                       # Write request sizes (log2)
system.mem_ctrls.writePktSize::1                    0                       # Write request sizes (log2)
system.mem_ctrls.writePktSize::2                    0                       # Write request sizes (log2)
system.mem_ctrls.writePktSize::3                    0                       # Write request sizes (log2)
system.mem_ctrls.writePktSize::4                    0                       # Write request sizes (log2)
system.mem_ctrls.writePktSize::5                    0                       # Write request sizes (log2)
system.mem_ctrls.writePktSize::6                    0                       # Write request sizes (log2)
system.mem_ctrls.rdQLenPdf::0                       0                       # What read queue length does an incoming req see
system.mem_ctrls.rdQLenPdf::1                       0                       # What read queue length does an incoming req see
system.mem_ctrls.rdQLenPdf::2                       0                       # What read queue length does an incoming req see
system.mem_ctrls.rdQLenPdf::3                       0                       # What read queue length does an incoming req see
system.mem_ctrls.rdQLenPdf::4                       0                       # What read queue length does an incoming req see
system.mem_ctrls.rdQLenPdf::5                       0                       # What read queue length does an incoming req see
system.mem_ctrls.rdQLenPdf::6                       0                       # What read queue length does an incoming req see
system.mem_ctrls.rdQLenPdf::7                       0                       # What read queue length does an incoming req see
system.mem_ctrls.rdQLenPdf::8                       0                       # What read queue length does an incoming req see
system.mem_ctrls.rdQLenPdf::9                       0                       # What read queue length does an incoming req see
system.mem_ctrls.rdQLenPdf::10                      0                       # What read queue length does an incoming req see
system.mem_ctrls.rdQLenPdf::11                      0                       # What read queue length does an incoming req see
system.mem_ctrls.rdQLenPdf::12                      0                       # What read queue length does an incoming req see
system.mem_ctrls.rdQLenPdf::13                      0                       # What read queue length does an incoming req see
system.mem_ctrls.rdQLenPdf::14                      0                       # What read queue length does an incoming req see
system.mem_ctrls.rdQLenPdf::15                      0                       # What read queue length does an incoming req see
system.mem_ctrls.rdQLenPdf::16                      0                       # What read queue length does an incoming req see
system.mem_ctrls.rdQLenPdf::17                      0                       # What read queue length does an incoming req see
system.mem_ctrls.rdQLenPdf::18                      0                       # What read queue length does an incoming req see
system.mem_ctrls.rdQLenPdf::19                      0                       # What read queue length does an incoming req see
system.mem_ctrls.rdQLenPdf::20                      0                       # What read queue length does an incoming req see
system.mem_ctrls.rdQLenPdf::21                      0                       # What read queue length does an incoming req see
system.mem_ctrls.rdQLenPdf::22                      0                       # What read queue length does an incoming req see
system.mem_ctrls.rdQLenPdf::23                      0                       # What read queue length does an incoming req see
system.mem_ctrls.rdQLenPdf::24                      0                       # What read queue length does an incoming req see
system.mem_ctrls.rdQLenPdf::25                      0                       # What read queue length does an incoming req see
system.mem_ctrls.rdQLenPdf::26                      0                       # What read queue length does an incoming req see
system.mem_ctrls.rdQLenPdf::27                      0                       # What read queue length does an incoming req see
system.mem_ctrls.rdQLenPdf::28                      0                       # What read queue length does an incoming req see
system.mem_ctrls.rdQLenPdf::29                      0                       # What read queue length does an incoming req see
system.mem_ctrls.rdQLenPdf::30                      0                       # What read queue length does an incoming req see
system.mem_ctrls.rdQLenPdf::31                      0                       # What read queue length does an incoming req see
system.mem_ctrls.wrQLenPdf::0                       0                       # What write queue length does an incoming req see
system.mem_ctrls.wrQLenPdf::1                       0                       # What write queue length does an incoming req see
system.mem_ctrls.wrQLenPdf::2                       0                       # What write queue length does an incoming req see
system.mem_ctrls.wrQLenPdf::3                       0                       # What write queue length does an incoming req see
system.mem_ctrls.wrQLenPdf::4                       0                       # What write queue length does an incoming req see
system.mem_ctrls.wrQLenPdf::5                       0                       # What write queue length does an incoming req see
system.mem_ctrls.wrQLenPdf::6                       0                       # What write queue length does an incoming req see
system.mem_ctrls.wrQLenPdf::7                       0                       # What write queue length does an incoming req see
system.mem_ctrls.wrQLenPdf::8                       0                       # What write queue length does an incoming req see
system.mem_ctrls.wrQLenPdf::9                       0                       # What write queue length does an incoming req see
system.mem_ctrls.wrQLenPdf::10                      0                       # What write queue length does an incoming req see
system.mem_ctrls.wrQLenPdf::11                      0                       # What write queue length does an incoming req see
system.mem_ctrls.wrQLenPdf::12                      0                       # What write queue length does an incoming req see
system.mem_ctrls.wrQLenPdf::13                      0                       # What write queue length does an incoming req see
system.mem_ctrls.wrQLenPdf::14                      0                       # What write queue length does an incoming req see
system.mem_ctrls.wrQLenPdf::15                      0                       # What write queue length does an incoming req see
system.mem_ctrls.wrQLenPdf::16                      0                       # What write queue length does an incoming req see
system.mem_ctrls.wrQLenPdf::17                      0                       # What write queue length does an incoming req see
system.mem_ctrls.wrQLenPdf::18                      0                       # What write queue length does an incoming req see
system.mem_ctrls.wrQLenPdf::19                      0                       # What write queue length does an incoming req see
system.mem_ctrls.wrQLenPdf::20                      0                       # What write queue length does an incoming req see
system.mem_ctrls.wrQLenPdf::21                      0                       # What write queue length does an incoming req see
system.mem_ctrls.wrQLenPdf::22                      0                       # What write queue length does an incoming req see
system.mem_ctrls.wrQLenPdf::23                      0                       # What write queue length does an incoming req see
system.mem_ctrls.wrQLenPdf::24                      0                       # What write queue length does an incoming req see
system.mem_ctrls.wrQLenPdf::25                      0                       # What write queue length does an incoming req see
system.mem_ctrls.wrQLenPdf::26                      0                       # What write queue length does an incoming req see
system.mem_ctrls.wrQLenPdf::27                      0                       # What write queue length does an incoming req see
system.mem_ctrls.wrQLenPdf::28                      0                       # What write queue length does an incoming req see
system.mem_ctrls.wrQLenPdf::29                      0                       # What write queue length does an incoming req see
system.mem_ctrls.wrQLenPdf::30                      0                       # What write queue length does an incoming req see
system.mem_ctrls.wrQLenPdf::31                      0                       # What write queue length does an incoming req see
system.mem_ctrls.wrQLenPdf::32                      0                       # What write queue length does an incoming req see
system.mem_ctrls.wrQLenPdf::33                      0                       # What write queue length does an incoming req see
system.mem_ctrls.wrQLenPdf::34                      0                       # What write queue length does an incoming req see
system.mem_ctrls.wrQLenPdf::35                      0                       # What write queue length does an incoming req see
system.mem_ctrls.wrQLenPdf::36                      0                       # What write queue length does an incoming req see
system.mem_ctrls.wrQLenPdf::37                      0                       # What write queue length does an incoming req see
system.mem_ctrls.wrQLenPdf::38                      0                       # What write queue length does an incoming req see
system.mem_ctrls.wrQLenPdf::39                      0                       # What write queue length does an incoming req see
system.mem_ctrls.wrQLenPdf::40                      0                       # What write queue length does an incoming req see
system.mem_ctrls.wrQLenPdf::41                      0                       # What write queue length does an incoming req see
system.mem_ctrls.wrQLenPdf::42                      0                       # What write queue length does an incoming req see
system.mem_ctrls.wrQLenPdf::43                      0                       # What write queue length does an incoming req see
system.mem_ctrls.wrQLenPdf::44                      0                       # What write queue length does an incoming req see
system.mem_ctrls.wrQLenPdf::45                      0                       # What write queue length does an incoming req see
system.mem_ctrls.wrQLenPdf::46                      0                       # What write queue length does an incoming req see
system.mem_ctrls.wrQLenPdf::47                      0                       # What write queue length does an incoming req see
system.mem_ctrls.wrQLenPdf::48                      0                       # What write queue length does an incoming req see
system.mem_ctrls.wrQLenPdf::49                      0                       # What write queue length does an incoming req see
system.mem_ctrls.wrQLenPdf::50                      0                       # What write queue length does an incoming req see
system.mem_ctrls.wrQLenPdf::51                      0                       # What write queue length does an incoming req see
system.mem_ctrls.wrQLenPdf::52                      0                       # What write queue length does an incoming req see
system.mem_ctrls.wrQLenPdf::53                      0                       # What write queue length does an incoming req see
system.mem_ctrls.wrQLenPdf::54                      0                       # What write queue length does an incoming req see
system.mem_ctrls.wrQLenPdf::55                      0                       # What write queue length does an incoming req see
system.mem_ctrls.wrQLenPdf::56                      0                       # What write queue length does an incoming req see
system.mem_ctrls.wrQLenPdf::57                      0                       # What write queue length does an incoming req see
system.mem_ctrls.wrQLenPdf::58                      0                       # What write queue length does an incoming req see
system.mem_ctrls.wrQLenPdf::59                      0                       # What write queue length does an incoming req see
system.mem_ctrls.wrQLenPdf::60                      0                       # What write queue length does an incoming req see
system.mem_ctrls.wrQLenPdf::61                      0                       # What write queue length does an incoming req see
system.mem_ctrls.wrQLenPdf::62                      0                       # What write queue length does an incoming req see
system.mem_ctrls.wrQLenPdf::63                      0                       # What write queue length does an incoming req see
system.mem_ctrls.totQLat                            0                       # Total ticks spent queuing
system.mem_ctrls.totMemAccLat                       0                       # Total ticks spent from burst creation until serviced by the DRAM
system.mem_ctrls.totBusLat                          0                       # Total ticks spent in databus transfers
system.mem_ctrls.avgQLat                          nan                       # Average queueing delay per DRAM burst
system.mem_ctrls.avgBusLat                        nan                       # Average bus latency per DRAM burst
system.mem_ctrls.avgMemAccLat                     nan                       # Average memory access latency per DRAM burst
system.mem_ctrls.avgRdBW                         0.00                       # Average DRAM read bandwidth in MiByte/s
system.mem_ctrls.avgWrBW                         0.00                       # Average achieved write bandwidth in MiByte/s
system.mem_ctrls.avgRdBWSys                      0.00                       # Average system read bandwidth in MiByte/s
system.mem_ctrls.avgWrBWSys                      0.00                       # Average system write bandwidth in MiByte/s
system.mem_ctrls.peakBW                      12800.00                       # Theoretical peak bandwidth in MiByte/s
system.mem_ctrls.busUtil                         0.00                       # Data bus utilization in percentage
system.mem_ctrls.busUtilRead                     0.00                       # Data bus utilization in percentage for reads
system.mem_ctrls.busUtilWrite                    0.00                       # Data bus utilization in percentage for writes
system.mem_ctrls.avgRdQLen                       0.00                       # Average read queue length when enqueuing
system.mem_ctrls.avgWrQLen                       0.00                       # Average write queue length when enqueuing
system.mem_ctrls.readRowHits                        0                       # Number of row buffer hits during reads
system.mem_ctrls.writeRowHits                       0                       # Number of row buffer hits during writes
system.mem_ctrls.readRowHitRate                   nan                       # Row buffer hit rate for reads
system.mem_ctrls.writeRowHitRate                  nan                       # Row buffer hit rate for writes
system.mem_ctrls.avgGap                           nan                       # Average gap between requests
system.mem_ctrls.pageHitRate                      nan                       # Row buffer hit rate, read and write combined
system.mem_ctrls_0.actEnergy                        0                       # Energy for activate commands per rank (pJ)
system.mem_ctrls_0.preEnergy                        0                       # Energy for precharge commands per rank (pJ)
system.mem_ctrls_0.readEnergy                       0                       # Energy for read commands per rank (pJ)
system.mem_ctrls_0.writeEnergy                      0                       # Energy for write commands per rank (pJ)
system.mem_ctrls_0.refreshEnergy                    0                       # Energy for refresh commands per rank (pJ)
system.mem_ctrls_0.actBackEnergy                    0                       # Energy for active background per rank (pJ)
system.mem_ctrls_0.preBackEnergy         103891187520                       # Energy for precharge background per rank (pJ)
system.mem_ctrls_0.actPowerDownEnergy               0                       # Energy for active power-down per rank (pJ)
system.mem_ctrls_0.prePowerDownEnergy               0                       # Energy for precharge power-down per rank (pJ)
system.mem_ctrls_0.selfRefreshEnergy                0                       # Energy for self refresh per rank (pJ)
system.mem_ctrls_0.totalEnergy           103891187520                       # Total energy per rank (pJ)
system.mem_ctrls_0.averagePower            384.000001                       # Core power per rank (mW)
system.mem_ctrls_0.totalIdleTime                    0                       # Total Idle time Per DRAM Rank
system.mem_ctrls_0.memoryStateTime::IDLE 270549966500                       # Time in different power states
system.mem_ctrls_0.memoryStateTime::REF             0                       # Time in different power states
system.mem_ctrls_0.memoryStateTime::SREF            0                       # Time in different power states
system.mem_ctrls_0.memoryStateTime::PRE_PDN            0                       # Time in different power states
system.mem_ctrls_0.memoryStateTime::ACT             0                       # Time in different power states
system.mem_ctrls_0.memoryStateTime::ACT_PDN            0                       # Time in different power states
system.mem_ctrls_1.actEnergy                        0                       # Energy for activate commands per rank (pJ)
system.mem_ctrls_1.preEnergy                        0                       # Energy for precharge commands per rank (pJ)
system.mem_ctrls_1.readEnergy                       0                       # Energy for read commands per rank (pJ)
system.mem_ctrls_1.writeEnergy                      0                       # Energy for write commands per rank (pJ)
system.mem_ctrls_1.refreshEnergy                    0                       # Energy for refresh commands per rank (pJ)
system.mem_ctrls_1.actBackEnergy                    0                       # Energy for active background per rank (pJ)
system.mem_ctrls_1.preBackEnergy         103891187520                       # Energy for precharge background per rank (pJ)
system.mem_ctrls_1.actPowerDownEnergy               0                       # Energy for active power-down per rank (pJ)
system.mem_ctrls_1.prePowerDownEnergy               0                       # Energy for precharge power-down per rank (pJ)
system.mem_ctrls_1.selfRefreshEnergy                0                       # Energy for self refresh per rank (pJ)
system.mem_ctrls_1.totalEnergy           103891187520                       # Total energy per rank (pJ)
system.mem_ctrls_1.averagePower            384.000001                       # Core power per rank (mW)
system.mem_ctrls_1.totalIdleTime                    0                       # Total Idle time Per DRAM Rank
system.mem_ctrls_1.memoryStateTime::IDLE 270549966500                       # Time in different power states
system.mem_ctrls_1.memoryStateTime::REF             0                       # Time in different power states
system.mem_ctrls_1.memoryStateTime::SREF            0                       # Time in different power states
system.mem_ctrls_1.memoryStateTime::PRE_PDN            0                       # Time in different power states
system.mem_ctrls_1.memoryStateTime::ACT             0                       # Time in different power states
system.mem_ctrls_1.memoryStateTime::ACT_PDN            0                       # Time in different power states
system.pwrStateResidencyTicks::UNDEFINED 270549966500                       # Cumulative time (in ticks) in various power states
system.cpu_voltage_domain.voltage                   1                       # Voltage in Volts
system.cpu_clk_domain.clock                       500                       # Clock period in ticks
system.cpu0.dtb.walker.pwrStateResidencyTicks::UNDEFINED 270549966500                       # Cumulative time (in ticks) in various power states
system.cpu0.dtb.rdAccesses                   13385641                       # TLB accesses on read requests
system.cpu0.dtb.wrAccesses                    6440316                       # TLB accesses on write requests
system.cpu0.dtb.rdMisses                         4339                       # TLB misses on read requests
system.cpu0.dtb.wrMisses                         6273                       # TLB misses on write requests
system.cpu0.apic_clk_domain.clock                8000                       # Clock period in ticks
system.cpu0.interrupts.pwrStateResidencyTicks::UNDEFINED 270549966500                       # Cumulative time (in ticks) in various power states
system.cpu0.itb.walker.pwrStateResidencyTicks::UNDEFINED 270549966500                       # Cumulative time (in ticks) in various power states
system.cpu0.itb.rdAccesses                          0                       # TLB accesses on read requests
system.cpu0.itb.wrAccesses                   54861301                       # TLB accesses on write requests
system.cpu0.itb.rdMisses                            0                       # TLB misses on read requests
system.cpu0.itb.wrMisses                          396                       # TLB misses on write requests
system.cpu0.workload.numSyscalls                  177                       # Number of system calls
system.cpu0.numPwrStateTransitions                  2                       # Number of power state transitions
system.cpu0.pwrStateClkGateDist::samples            1                       # Distribution of time spent in the clock gated state
system.cpu0.pwrStateClkGateDist::mean    224806927500                       # Distribution of time spent in the clock gated state
system.cpu0.pwrStateClkGateDist::2e+11-2.5e+11            1    100.00%    100.00% # Distribution of time spent in the clock gated state
system.cpu0.pwrStateClkGateDist::min_value 224806927500                       # Distribution of time spent in the clock gated state
system.cpu0.pwrStateClkGateDist::max_value 224806927500                       # Distribution of time spent in the clock gated state
system.cpu0.pwrStateClkGateDist::total              1                       # Distribution of time spent in the clock gated state
system.cpu0.pwrStateResidencyTicks::ON    45743039000                       # Cumulative time (in ticks) in various power states
system.cpu0.pwrStateResidencyTicks::CLK_GATED 224806927500                       # Cumulative time (in ticks) in various power states
system.cpu0.numCycles                       541117206                       # number of cpu cycles simulated
system.cpu0.numWorkItemsStarted                     0                       # number of work items this cpu started
system.cpu0.numWorkItemsCompleted                   0                       # number of work items this cpu completed
system.cpu0.committedInsts                   41611350                       # Number of instructions committed
system.cpu0.committedOps                     78253400                       # Number of ops (including micro ops) committed
system.cpu0.num_int_alu_accesses             76677660                       # Number of integer alu accesses
system.cpu0.num_fp_alu_accesses               1384348                       # Number of float alu accesses
system.cpu0.num_vec_alu_accesses                    0                       # Number of vector alu accesses
system.cpu0.num_func_calls                    2366276                       # number of times a function call or return occured
system.cpu0.num_conditional_control_insts      4428267                       # number of instructions that are conditional controls
system.cpu0.num_int_insts                    76677660                       # number of integer instructions
system.cpu0.num_fp_insts                      1384348                       # number of float instructions
system.cpu0.num_vec_insts                           0                       # number of vector instructions
system.cpu0.num_int_register_reads          152518200                       # number of times the integer registers were read
system.cpu0.num_int_register_writes          61560346                       # number of times the integer registers were written
system.cpu0.num_fp_register_reads             1543044                       # number of times the floating registers were read
system.cpu0.num_fp_register_writes             682527                       # number of times the floating registers were written
system.cpu0.num_vec_register_reads                  0                       # number of times the vector registers were read
system.cpu0.num_vec_register_writes                 0                       # number of times the vector registers were written
system.cpu0.num_cc_register_reads            28303214                       # number of times the CC registers were read
system.cpu0.num_cc_register_writes           25434383                       # number of times the CC registers were written
system.cpu0.num_mem_refs                     19822034                       # number of memory refs
system.cpu0.num_load_insts                   13381735                       # Number of load instructions
system.cpu0.num_store_insts                   6440299                       # Number of store instructions
system.cpu0.num_idle_cycles              449628207.578414                       # Number of idle cycles
system.cpu0.num_busy_cycles              91488998.421586                       # Number of busy cycles
system.cpu0.not_idle_fraction                0.169074                       # Percentage of non-idle cycles
system.cpu0.idle_fraction                    0.830926                       # Percentage of idle cycles
system.cpu0.Branches                          8669847                       # Number of branches fetched
system.cpu0.op_class::No_OpClass                25155      0.03%      0.03% # Class of executed instruction
system.cpu0.op_class::IntAlu                 57755743     73.81%     73.84% # Class of executed instruction
system.cpu0.op_class::IntMult                   19170      0.02%     73.86% # Class of executed instruction
system.cpu0.op_class::IntDiv                    37041      0.05%     73.91% # Class of executed instruction
system.cpu0.op_class::FloatAdd                 176508      0.23%     74.14% # Class of executed instruction
system.cpu0.op_class::FloatCmp                      0      0.00%     74.14% # Class of executed instruction
system.cpu0.op_class::FloatCvt                   2080      0.00%     74.14% # Class of executed instruction
system.cpu0.op_class::FloatMult                     0      0.00%     74.14% # Class of executed instruction
system.cpu0.op_class::FloatMultAcc                  0      0.00%     74.14% # Class of executed instruction
system.cpu0.op_class::FloatDiv                      0      0.00%     74.14% # Class of executed instruction
system.cpu0.op_class::FloatMisc                     0      0.00%     74.14% # Class of executed instruction
system.cpu0.op_class::FloatSqrt                     0      0.00%     74.14% # Class of executed instruction
system.cpu0.op_class::SimdAdd                    8076      0.01%     74.15% # Class of executed instruction
system.cpu0.op_class::SimdAddAcc                    0      0.00%     74.15% # Class of executed instruction
system.cpu0.op_class::SimdAlu                  322317      0.41%     74.56% # Class of executed instruction
system.cpu0.op_class::SimdCmp                       6      0.00%     74.56% # Class of executed instruction
system.cpu0.op_class::SimdCvt                   16016      0.02%     74.58% # Class of executed instruction
system.cpu0.op_class::SimdMisc                  23244      0.03%     74.61% # Class of executed instruction
system.cpu0.op_class::SimdMult                      0      0.00%     74.61% # Class of executed instruction
system.cpu0.op_class::SimdMultAcc                   0      0.00%     74.61% # Class of executed instruction
system.cpu0.op_class::SimdShift                  2617      0.00%     74.61% # Class of executed instruction
system.cpu0.op_class::SimdShiftAcc                  0      0.00%     74.61% # Class of executed instruction
system.cpu0.op_class::SimdSqrt                      0      0.00%     74.61% # Class of executed instruction
system.cpu0.op_class::SimdFloatAdd              14448      0.02%     74.63% # Class of executed instruction
system.cpu0.op_class::SimdFloatAlu                  0      0.00%     74.63% # Class of executed instruction
system.cpu0.op_class::SimdFloatCmp                  0      0.00%     74.63% # Class of executed instruction
system.cpu0.op_class::SimdFloatCvt              14467      0.02%     74.65% # Class of executed instruction
system.cpu0.op_class::SimdFloatDiv              14417      0.02%     74.67% # Class of executed instruction
system.cpu0.op_class::SimdFloatMisc                 0      0.00%     74.67% # Class of executed instruction
system.cpu0.op_class::SimdFloatMult                61      0.00%     74.67% # Class of executed instruction
system.cpu0.op_class::SimdFloatMultAcc              0      0.00%     74.67% # Class of executed instruction
system.cpu0.op_class::SimdFloatSqrt                 0      0.00%     74.67% # Class of executed instruction
system.cpu0.op_class::SimdAes                       0      0.00%     74.67% # Class of executed instruction
system.cpu0.op_class::SimdAesMix                    0      0.00%     74.67% # Class of executed instruction
system.cpu0.op_class::SimdSha1Hash                  0      0.00%     74.67% # Class of executed instruction
system.cpu0.op_class::SimdSha1Hash2                 0      0.00%     74.67% # Class of executed instruction
system.cpu0.op_class::SimdSha256Hash                0      0.00%     74.67% # Class of executed instruction
system.cpu0.op_class::SimdSha256Hash2               0      0.00%     74.67% # Class of executed instruction
system.cpu0.op_class::SimdShaSigma2                 0      0.00%     74.67% # Class of executed instruction
system.cpu0.op_class::SimdShaSigma3                 0      0.00%     74.67% # Class of executed instruction
system.cpu0.op_class::MemRead                13269856     16.96%     91.63% # Class of executed instruction
system.cpu0.op_class::MemWrite                5763201      7.36%     98.99% # Class of executed instruction
system.cpu0.op_class::FloatMemRead             111879      0.14%     99.13% # Class of executed instruction
system.cpu0.op_class::FloatMemWrite            677098      0.87%    100.00% # Class of executed instruction
system.cpu0.op_class::IprAccess                     0      0.00%    100.00% # Class of executed instruction
system.cpu0.op_class::InstPrefetch                  0      0.00%    100.00% # Class of executed instruction
system.cpu0.op_class::total                  78253400                       # Class of executed instruction
system.cpu0.dcache.tags.pwrStateResidencyTicks::UNDEFINED 270549966500                       # Cumulative time (in ticks) in various power states
system.cpu0.dcache.tags.tagsinuse          419.792091                       # Cycle average of tags in use
system.cpu0.dcache.tags.total_refs           19825957                       # Total number of references to valid blocks.
system.cpu0.dcache.tags.sampled_refs           248889                       # Sample count of references to valid blocks.
system.cpu0.dcache.tags.avg_refs            79.657827                       # Average number of references to valid blocks.
system.cpu0.dcache.tags.warmup_cycle             1500                       # Cycle when the warmup percentage was hit.
system.cpu0.dcache.tags.occ_blocks::.cpu0.data   419.792091                       # Average occupied blocks per requestor
system.cpu0.dcache.tags.occ_percent::.cpu0.data     0.819906                       # Average percentage of cache occupancy
system.cpu0.dcache.tags.occ_percent::total     0.819906                       # Average percentage of cache occupancy
system.cpu0.dcache.tags.occ_task_id_blocks::1024          512                       # Occupied blocks per task id
system.cpu0.dcache.tags.age_task_id_blocks_1024::0          230                       # Occupied blocks per task id
system.cpu0.dcache.tags.age_task_id_blocks_1024::1          262                       # Occupied blocks per task id
system.cpu0.dcache.tags.age_task_id_blocks_1024::2           11                       # Occupied blocks per task id
system.cpu0.dcache.tags.age_task_id_blocks_1024::3            9                       # Occupied blocks per task id
system.cpu0.dcache.tags.occ_task_id_percent::1024            1                       # Percentage of cache occupancy per task id
system.cpu0.dcache.tags.tag_accesses         39900803                       # Number of tag accesses
system.cpu0.dcache.tags.data_accesses        39900803                       # Number of data accesses
system.cpu0.dcache.pwrStateResidencyTicks::UNDEFINED 270549966500                       # Cumulative time (in ticks) in various power states
system.cpu0.dcache.ReadReq_hits::.cpu0.data     13260877                       # number of ReadReq hits
system.cpu0.dcache.ReadReq_hits::total       13260877                       # number of ReadReq hits
system.cpu0.dcache.WriteReq_hits::.cpu0.data      6316170                       # number of WriteReq hits
system.cpu0.dcache.WriteReq_hits::total       6316170                       # number of WriteReq hits
system.cpu0.dcache.demand_hits::.cpu0.data     19577047                       # number of demand (read+write) hits
system.cpu0.dcache.demand_hits::total        19577047                       # number of demand (read+write) hits
system.cpu0.dcache.overall_hits::.cpu0.data     19577047                       # number of overall hits
system.cpu0.dcache.overall_hits::total       19577047                       # number of overall hits
system.cpu0.dcache.ReadReq_misses::.cpu0.data       124764                       # number of ReadReq misses
system.cpu0.dcache.ReadReq_misses::total       124764                       # number of ReadReq misses
system.cpu0.dcache.WriteReq_misses::.cpu0.data       124146                       # number of WriteReq misses
system.cpu0.dcache.WriteReq_misses::total       124146                       # number of WriteReq misses
system.cpu0.dcache.demand_misses::.cpu0.data       248910                       # number of demand (read+write) misses
system.cpu0.dcache.demand_misses::total        248910                       # number of demand (read+write) misses
system.cpu0.dcache.overall_misses::.cpu0.data       248910                       # number of overall misses
system.cpu0.dcache.overall_misses::total       248910                       # number of overall misses
system.cpu0.dcache.ReadReq_accesses::.cpu0.data     13385641                       # number of ReadReq accesses(hits+misses)
system.cpu0.dcache.ReadReq_accesses::total     13385641                       # number of ReadReq accesses(hits+misses)
system.cpu0.dcache.WriteReq_accesses::.cpu0.data      6440316                       # number of WriteReq accesses(hits+misses)
system.cpu0.dcache.WriteReq_accesses::total      6440316                       # number of WriteReq accesses(hits+misses)
system.cpu0.dcache.demand_accesses::.cpu0.data     19825957                       # number of demand (read+write) accesses
system.cpu0.dcache.demand_accesses::total     19825957                       # number of demand (read+write) accesses
system.cpu0.dcache.overall_accesses::.cpu0.data     19825957                       # number of overall (read+write) accesses
system.cpu0.dcache.overall_accesses::total     19825957                       # number of overall (read+write) accesses
system.cpu0.dcache.ReadReq_miss_rate::.cpu0.data     0.009321                       # miss rate for ReadReq accesses
system.cpu0.dcache.ReadReq_miss_rate::total     0.009321                       # miss rate for ReadReq accesses
system.cpu0.dcache.WriteReq_miss_rate::.cpu0.data     0.019276                       # miss rate for WriteReq accesses
system.cpu0.dcache.WriteReq_miss_rate::total     0.019276                       # miss rate for WriteReq accesses
system.cpu0.dcache.demand_miss_rate::.cpu0.data     0.012555                       # miss rate for demand accesses
system.cpu0.dcache.demand_miss_rate::total     0.012555                       # miss rate for demand accesses
system.cpu0.dcache.overall_miss_rate::.cpu0.data     0.012555                       # miss rate for overall accesses
system.cpu0.dcache.overall_miss_rate::total     0.012555                       # miss rate for overall accesses
system.cpu0.dcache.blocked_cycles::no_mshrs            0                       # number of cycles access was blocked
system.cpu0.dcache.blocked_cycles::no_targets            0                       # number of cycles access was blocked
system.cpu0.dcache.blocked::no_mshrs                0                       # number of cycles access was blocked
system.cpu0.dcache.blocked::no_targets              0                       # number of cycles access was blocked
system.cpu0.dcache.avg_blocked_cycles::no_mshrs          nan                       # average number of cycles each access was blocked
system.cpu0.dcache.avg_blocked_cycles::no_targets          nan                       # average number of cycles each access was blocked
system.cpu0.dcache.writebacks::.writebacks       231439                       # number of writebacks
system.cpu0.dcache.writebacks::total           231439                       # number of writebacks
system.cpu0.dcache.replacements                248227                       # number of replacements
system.cpu0.dtb_walker_cache.tags.pwrStateResidencyTicks::UNDEFINED 270549966500                       # Cumulative time (in ticks) in various power states
system.cpu0.dtb_walker_cache.tags.tagsinuse            0                       # Cycle average of tags in use
system.cpu0.dtb_walker_cache.tags.total_refs            0                       # Total number of references to valid blocks.
system.cpu0.dtb_walker_cache.tags.sampled_refs            0                       # Sample count of references to valid blocks.
system.cpu0.dtb_walker_cache.tags.avg_refs          nan                       # Average number of references to valid blocks.
system.cpu0.dtb_walker_cache.tags.warmup_cycle            0                       # Cycle when the warmup percentage was hit.
system.cpu0.dtb_walker_cache.tags.tag_accesses            0                       # Number of tag accesses
system.cpu0.dtb_walker_cache.tags.data_accesses            0                       # Number of data accesses
system.cpu0.dtb_walker_cache.pwrStateResidencyTicks::UNDEFINED 270549966500                       # Cumulative time (in ticks) in various power states
system.cpu0.dtb_walker_cache.blocked_cycles::no_mshrs            0                       # number of cycles access was blocked
system.cpu0.dtb_walker_cache.blocked_cycles::no_targets            0                       # number of cycles access was blocked
system.cpu0.dtb_walker_cache.blocked::no_mshrs            0                       # number of cycles access was blocked
system.cpu0.dtb_walker_cache.blocked::no_targets            0                       # number of cycles access was blocked
system.cpu0.dtb_walker_cache.avg_blocked_cycles::no_mshrs          nan                       # average number of cycles each access was blocked
system.cpu0.dtb_walker_cache.avg_blocked_cycles::no_targets          nan                       # average number of cycles each access was blocked
system.cpu0.dtb_walker_cache.replacements            0                       # number of replacements
system.cpu0.icache.tags.pwrStateResidencyTicks::UNDEFINED 270549966500                       # Cumulative time (in ticks) in various power states
system.cpu0.icache.tags.tagsinuse          511.473173                       # Cycle average of tags in use
system.cpu0.icache.tags.total_refs           54861301                       # Total number of references to valid blocks.
system.cpu0.icache.tags.sampled_refs             3053                       # Sample count of references to valid blocks.
system.cpu0.icache.tags.avg_refs         17969.636751                       # Average number of references to valid blocks.
system.cpu0.icache.tags.warmup_cycle                0                       # Cycle when the warmup percentage was hit.
system.cpu0.icache.tags.occ_blocks::.cpu0.inst   511.473173                       # Average occupied blocks per requestor
system.cpu0.icache.tags.occ_percent::.cpu0.inst     0.998971                       # Average percentage of cache occupancy
system.cpu0.icache.tags.occ_percent::total     0.998971                       # Average percentage of cache occupancy
system.cpu0.icache.tags.occ_task_id_blocks::1024          512                       # Occupied blocks per task id
system.cpu0.icache.tags.age_task_id_blocks_1024::0          142                       # Occupied blocks per task id
system.cpu0.icache.tags.age_task_id_blocks_1024::3           45                       # Occupied blocks per task id
system.cpu0.icache.tags.age_task_id_blocks_1024::4          325                       # Occupied blocks per task id
system.cpu0.icache.tags.occ_task_id_percent::1024            1                       # Percentage of cache occupancy per task id
system.cpu0.icache.tags.tag_accesses        109725655                       # Number of tag accesses
system.cpu0.icache.tags.data_accesses       109725655                       # Number of data accesses
system.cpu0.icache.pwrStateResidencyTicks::UNDEFINED 270549966500                       # Cumulative time (in ticks) in various power states
system.cpu0.icache.ReadReq_hits::.cpu0.inst     54858248                       # number of ReadReq hits
system.cpu0.icache.ReadReq_hits::total       54858248                       # number of ReadReq hits
system.cpu0.icache.demand_hits::.cpu0.inst     54858248                       # number of demand (read+write) hits
system.cpu0.icache.demand_hits::total        54858248                       # number of demand (read+write) hits
system.cpu0.icache.overall_hits::.cpu0.inst     54858248                       # number of overall hits
system.cpu0.icache.overall_hits::total       54858248                       # number of overall hits
system.cpu0.icache.ReadReq_misses::.cpu0.inst         3053                       # number of ReadReq misses
system.cpu0.icache.ReadReq_misses::total         3053                       # number of ReadReq misses
system.cpu0.icache.demand_misses::.cpu0.inst         3053                       # number of demand (read+write) misses
system.cpu0.icache.demand_misses::total          3053                       # number of demand (read+write) misses
system.cpu0.icache.overall_misses::.cpu0.inst         3053                       # number of overall misses
system.cpu0.icache.overall_misses::total         3053                       # number of overall misses
system.cpu0.icache.ReadReq_accesses::.cpu0.inst     54861301                       # number of ReadReq accesses(hits+misses)
system.cpu0.icache.ReadReq_accesses::total     54861301                       # number of ReadReq accesses(hits+misses)
system.cpu0.icache.demand_accesses::.cpu0.inst     54861301                       # number of demand (read+write) accesses
system.cpu0.icache.demand_accesses::total     54861301                       # number of demand (read+write) accesses
system.cpu0.icache.overall_accesses::.cpu0.inst     54861301                       # number of overall (read+write) accesses
system.cpu0.icache.overall_accesses::total     54861301                       # number of overall (read+write) accesses
system.cpu0.icache.ReadReq_miss_rate::.cpu0.inst     0.000056                       # miss rate for ReadReq accesses
system.cpu0.icache.ReadReq_miss_rate::total     0.000056                       # miss rate for ReadReq accesses
system.cpu0.icache.demand_miss_rate::.cpu0.inst     0.000056                       # miss rate for demand accesses
system.cpu0.icache.demand_miss_rate::total     0.000056                       # miss rate for demand accesses
system.cpu0.icache.overall_miss_rate::.cpu0.inst     0.000056                       # miss rate for overall accesses
system.cpu0.icache.overall_miss_rate::total     0.000056                       # miss rate for overall accesses
system.cpu0.icache.blocked_cycles::no_mshrs            0                       # number of cycles access was blocked
system.cpu0.icache.blocked_cycles::no_targets            0                       # number of cycles access was blocked
system.cpu0.icache.blocked::no_mshrs                0                       # number of cycles access was blocked
system.cpu0.icache.blocked::no_targets              0                       # number of cycles access was blocked
system.cpu0.icache.avg_blocked_cycles::no_mshrs          nan                       # average number of cycles each access was blocked
system.cpu0.icache.avg_blocked_cycles::no_targets          nan                       # average number of cycles each access was blocked
system.cpu0.icache.writebacks::.writebacks         2541                       # number of writebacks
system.cpu0.icache.writebacks::total             2541                       # number of writebacks
system.cpu0.icache.replacements                  2541                       # number of replacements
system.cpu0.itb_walker_cache.tags.pwrStateResidencyTicks::UNDEFINED 270549966500                       # Cumulative time (in ticks) in various power states
system.cpu0.itb_walker_cache.tags.tagsinuse            0                       # Cycle average of tags in use
system.cpu0.itb_walker_cache.tags.total_refs            0                       # Total number of references to valid blocks.
system.cpu0.itb_walker_cache.tags.sampled_refs            0                       # Sample count of references to valid blocks.
system.cpu0.itb_walker_cache.tags.avg_refs          nan                       # Average number of references to valid blocks.
system.cpu0.itb_walker_cache.tags.warmup_cycle            0                       # Cycle when the warmup percentage was hit.
system.cpu0.itb_walker_cache.tags.tag_accesses            0                       # Number of tag accesses
system.cpu0.itb_walker_cache.tags.data_accesses            0                       # Number of data accesses
system.cpu0.itb_walker_cache.pwrStateResidencyTicks::UNDEFINED 270549966500                       # Cumulative time (in ticks) in various power states
system.cpu0.itb_walker_cache.blocked_cycles::no_mshrs            0                       # number of cycles access was blocked
system.cpu0.itb_walker_cache.blocked_cycles::no_targets            0                       # number of cycles access was blocked
system.cpu0.itb_walker_cache.blocked::no_mshrs            0                       # number of cycles access was blocked
system.cpu0.itb_walker_cache.blocked::no_targets            0                       # number of cycles access was blocked
system.cpu0.itb_walker_cache.avg_blocked_cycles::no_mshrs          nan                       # average number of cycles each access was blocked
system.cpu0.itb_walker_cache.avg_blocked_cycles::no_targets          nan                       # average number of cycles each access was blocked
system.cpu0.itb_walker_cache.replacements            0                       # number of replacements
system.cpu1.dtb.walker.pwrStateResidencyTicks::UNDEFINED 270549966500                       # Cumulative time (in ticks) in various power states
system.cpu1.dtb.rdAccesses                   83029129                       # TLB accesses on read requests
system.cpu1.dtb.wrAccesses                   36036421                       # TLB accesses on write requests
system.cpu1.dtb.rdMisses                         4514                       # TLB misses on read requests
system.cpu1.dtb.wrMisses                         2955                       # TLB misses on write requests
system.cpu1.apic_clk_domain.clock                8000                       # Clock period in ticks
system.cpu1.interrupts.pwrStateResidencyTicks::UNDEFINED 270549966500                       # Cumulative time (in ticks) in various power states
system.cpu1.itb.walker.pwrStateResidencyTicks::UNDEFINED 270549966500                       # Cumulative time (in ticks) in various power states
system.cpu1.itb.rdAccesses                          0                       # TLB accesses on read requests
system.cpu1.itb.wrAccesses                  309890557                       # TLB accesses on write requests
system.cpu1.itb.rdMisses                            0                       # TLB misses on read requests
system.cpu1.itb.wrMisses                           32                       # TLB misses on write requests
system.cpu1.numPwrStateTransitions                 12                       # Number of power state transitions
system.cpu1.pwrStateClkGateDist::samples            6                       # Distribution of time spent in the clock gated state
system.cpu1.pwrStateClkGateDist::mean           65250                       # Distribution of time spent in the clock gated state
system.cpu1.pwrStateClkGateDist::stdev   47438.117585                       # Distribution of time spent in the clock gated state
system.cpu1.pwrStateClkGateDist::1000-5e+10            6    100.00%    100.00% # Distribution of time spent in the clock gated state
system.cpu1.pwrStateClkGateDist::min_value         4500                       # Distribution of time spent in the clock gated state
system.cpu1.pwrStateClkGateDist::max_value       140000                       # Distribution of time spent in the clock gated state
system.cpu1.pwrStateClkGateDist::total              6                       # Distribution of time spent in the clock gated state
system.cpu1.pwrStateResidencyTicks::ON   270549575000                       # Cumulative time (in ticks) in various power states
system.cpu1.pwrStateResidencyTicks::CLK_GATED       391500                       # Cumulative time (in ticks) in various power states
system.cpu1.numCycles                       529542675                       # number of cpu cycles simulated
system.cpu1.numWorkItemsStarted                     0                       # number of work items this cpu started
system.cpu1.numWorkItemsCompleted                   0                       # number of work items this cpu completed
system.cpu1.committedInsts                  225327261                       # Number of instructions committed
system.cpu1.committedOps                    365423315                       # Number of ops (including micro ops) committed
system.cpu1.num_int_alu_accesses            292448281                       # Number of integer alu accesses
system.cpu1.num_fp_alu_accesses             111207883                       # Number of float alu accesses
system.cpu1.num_vec_alu_accesses                    0                       # Number of vector alu accesses
system.cpu1.num_func_calls                    8419887                       # number of times a function call or return occured
system.cpu1.num_conditional_control_insts      7356812                       # number of instructions that are conditional controls
system.cpu1.num_int_insts                   292448281                       # number of integer instructions
system.cpu1.num_fp_insts                    111207883                       # number of float instructions
system.cpu1.num_vec_insts                           0                       # number of vector instructions
system.cpu1.num_int_register_reads          677217199                       # number of times the integer registers were read
system.cpu1.num_int_register_writes         213069582                       # number of times the integer registers were written
system.cpu1.num_fp_register_reads            73750287                       # number of times the floating registers were read
system.cpu1.num_fp_register_writes           96266972                       # number of times the floating registers were written
system.cpu1.num_vec_register_reads                  0                       # number of times the vector registers were read
system.cpu1.num_vec_register_writes                 0                       # number of times the vector registers were written
system.cpu1.num_cc_register_reads            60502678                       # number of times the CC registers were read
system.cpu1.num_cc_register_writes          107170041                       # number of times the CC registers were written
system.cpu1.num_mem_refs                    118834891                       # number of memory refs
system.cpu1.num_load_insts                   82816215                       # Number of load instructions
system.cpu1.num_store_insts                  36018676                       # Number of store instructions
system.cpu1.num_idle_cycles              89526690.814373                       # Number of idle cycles
system.cpu1.num_busy_cycles              440015984.185627                       # Number of busy cycles
system.cpu1.not_idle_fraction                0.830936                       # Percentage of non-idle cycles
system.cpu1.idle_fraction                    0.169064                       # Percentage of idle cycles
system.cpu1.Branches                         17361123                       # Number of branches fetched
system.cpu1.op_class::No_OpClass                  209      0.00%      0.00% # Class of executed instruction
system.cpu1.op_class::IntAlu                185950803     50.89%     50.89% # Class of executed instruction
system.cpu1.op_class::IntMult                  232208      0.06%     50.95% # Class of executed instruction
system.cpu1.op_class::IntDiv                       71      0.00%     50.95% # Class of executed instruction
system.cpu1.op_class::FloatAdd               46351657     12.68%     63.63% # Class of executed instruction
system.cpu1.op_class::FloatCmp                      0      0.00%     63.63% # Class of executed instruction
system.cpu1.op_class::FloatCvt                     80      0.00%     63.63% # Class of executed instruction
system.cpu1.op_class::FloatMult                     0      0.00%     63.63% # Class of executed instruction
system.cpu1.op_class::FloatMultAcc                  0      0.00%     63.63% # Class of executed instruction
system.cpu1.op_class::FloatDiv                      0      0.00%     63.63% # Class of executed instruction
system.cpu1.op_class::FloatMisc                     0      0.00%     63.63% # Class of executed instruction
system.cpu1.op_class::FloatSqrt                     0      0.00%     63.63% # Class of executed instruction
system.cpu1.op_class::SimdAdd                     116      0.00%     63.63% # Class of executed instruction
system.cpu1.op_class::SimdAddAcc                    0      0.00%     63.63% # Class of executed instruction
system.cpu1.op_class::SimdAlu                  166660      0.05%     63.68% # Class of executed instruction
system.cpu1.op_class::SimdCmp                       0      0.00%     63.68% # Class of executed instruction
system.cpu1.op_class::SimdCvt                     232      0.00%     63.68% # Class of executed instruction
system.cpu1.op_class::SimdMisc                2354447      0.64%     64.32% # Class of executed instruction
system.cpu1.op_class::SimdMult                      0      0.00%     64.32% # Class of executed instruction
system.cpu1.op_class::SimdMultAcc                   0      0.00%     64.32% # Class of executed instruction
system.cpu1.op_class::SimdShift                    50      0.00%     64.32% # Class of executed instruction
system.cpu1.op_class::SimdShiftAcc                  0      0.00%     64.32% # Class of executed instruction
system.cpu1.op_class::SimdSqrt                      0      0.00%     64.32% # Class of executed instruction
system.cpu1.op_class::SimdFloatAdd            5893092      1.61%     65.94% # Class of executed instruction
system.cpu1.op_class::SimdFloatAlu                  0      0.00%     65.94% # Class of executed instruction
system.cpu1.op_class::SimdFloatCmp                  0      0.00%     65.94% # Class of executed instruction
system.cpu1.op_class::SimdFloatCvt            1071299      0.29%     66.23% # Class of executed instruction
system.cpu1.op_class::SimdFloatDiv             161031      0.04%     66.27% # Class of executed instruction
system.cpu1.op_class::SimdFloatMisc                 0      0.00%     66.27% # Class of executed instruction
system.cpu1.op_class::SimdFloatMult           4336359      1.19%     67.46% # Class of executed instruction
system.cpu1.op_class::SimdFloatMultAcc              0      0.00%     67.46% # Class of executed instruction
system.cpu1.op_class::SimdFloatSqrt             70110      0.02%     67.48% # Class of executed instruction
system.cpu1.op_class::SimdAes                       0      0.00%     67.48% # Class of executed instruction
system.cpu1.op_class::SimdAesMix                    0      0.00%     67.48% # Class of executed instruction
system.cpu1.op_class::SimdSha1Hash                  0      0.00%     67.48% # Class of executed instruction
system.cpu1.op_class::SimdSha1Hash2                 0      0.00%     67.48% # Class of executed instruction
system.cpu1.op_class::SimdSha256Hash                0      0.00%     67.48% # Class of executed instruction
system.cpu1.op_class::SimdSha256Hash2               0      0.00%     67.48% # Class of executed instruction
system.cpu1.op_class::SimdShaSigma2                 0      0.00%     67.48% # Class of executed instruction
system.cpu1.op_class::SimdShaSigma3                 0      0.00%     67.48% # Class of executed instruction
system.cpu1.op_class::MemRead                56584929     15.48%     82.96% # Class of executed instruction
system.cpu1.op_class::MemWrite               24482780      6.70%     89.66% # Class of executed instruction
system.cpu1.op_class::FloatMemRead           26231286      7.18%     96.84% # Class of executed instruction
system.cpu1.op_class::FloatMemWrite          11535896      3.16%    100.00% # Class of executed instruction
system.cpu1.op_class::IprAccess                     0      0.00%    100.00% # Class of executed instruction
system.cpu1.op_class::InstPrefetch                  0      0.00%    100.00% # Class of executed instruction
system.cpu1.op_class::total                 365423315                       # Class of executed instruction
system.cpu1.dcache.tags.pwrStateResidencyTicks::UNDEFINED 270549966500                       # Cumulative time (in ticks) in various power states
system.cpu1.dcache.tags.tagsinuse          427.581713                       # Cycle average of tags in use
system.cpu1.dcache.tags.total_refs          119065550                       # Total number of references to valid blocks.
system.cpu1.dcache.tags.sampled_refs            72187                       # Sample count of references to valid blocks.
system.cpu1.dcache.tags.avg_refs          1649.404325                       # Average number of references to valid blocks.
system.cpu1.dcache.tags.warmup_cycle      39777644500                       # Cycle when the warmup percentage was hit.
system.cpu1.dcache.tags.occ_blocks::.cpu1.data   427.581713                       # Average occupied blocks per requestor
system.cpu1.dcache.tags.occ_percent::.cpu1.data     0.835121                       # Average percentage of cache occupancy
system.cpu1.dcache.tags.occ_percent::total     0.835121                       # Average percentage of cache occupancy
system.cpu1.dcache.tags.occ_task_id_blocks::1024          495                       # Occupied blocks per task id
system.cpu1.dcache.tags.age_task_id_blocks_1024::3          492                       # Occupied blocks per task id
system.cpu1.dcache.tags.age_task_id_blocks_1024::4            3                       # Occupied blocks per task id
system.cpu1.dcache.tags.occ_task_id_percent::1024     0.966797                       # Percentage of cache occupancy per task id
system.cpu1.dcache.tags.tag_accesses        238203287                       # Number of tag accesses
system.cpu1.dcache.tags.data_accesses       238203287                       # Number of data accesses
system.cpu1.dcache.pwrStateResidencyTicks::UNDEFINED 270549966500                       # Cumulative time (in ticks) in various power states
system.cpu1.dcache.ReadReq_hits::.cpu1.data     82976587                       # number of ReadReq hits
system.cpu1.dcache.ReadReq_hits::total       82976587                       # number of ReadReq hits
system.cpu1.dcache.WriteReq_hits::.cpu1.data     36012579                       # number of WriteReq hits
system.cpu1.dcache.WriteReq_hits::total      36012579                       # number of WriteReq hits
system.cpu1.dcache.demand_hits::.cpu1.data    118989166                       # number of demand (read+write) hits
system.cpu1.dcache.demand_hits::total       118989166                       # number of demand (read+write) hits
system.cpu1.dcache.overall_hits::.cpu1.data    118989166                       # number of overall hits
system.cpu1.dcache.overall_hits::total      118989166                       # number of overall hits
system.cpu1.dcache.ReadReq_misses::.cpu1.data        52542                       # number of ReadReq misses
system.cpu1.dcache.ReadReq_misses::total        52542                       # number of ReadReq misses
system.cpu1.dcache.WriteReq_misses::.cpu1.data        23842                       # number of WriteReq misses
system.cpu1.dcache.WriteReq_misses::total        23842                       # number of WriteReq misses
system.cpu1.dcache.demand_misses::.cpu1.data        76384                       # number of demand (read+write) misses
system.cpu1.dcache.demand_misses::total         76384                       # number of demand (read+write) misses
system.cpu1.dcache.overall_misses::.cpu1.data        76384                       # number of overall misses
system.cpu1.dcache.overall_misses::total        76384                       # number of overall misses
system.cpu1.dcache.ReadReq_accesses::.cpu1.data     83029129                       # number of ReadReq accesses(hits+misses)
system.cpu1.dcache.ReadReq_accesses::total     83029129                       # number of ReadReq accesses(hits+misses)
system.cpu1.dcache.WriteReq_accesses::.cpu1.data     36036421                       # number of WriteReq accesses(hits+misses)
system.cpu1.dcache.WriteReq_accesses::total     36036421                       # number of WriteReq accesses(hits+misses)
system.cpu1.dcache.demand_accesses::.cpu1.data    119065550                       # number of demand (read+write) accesses
system.cpu1.dcache.demand_accesses::total    119065550                       # number of demand (read+write) accesses
system.cpu1.dcache.overall_accesses::.cpu1.data    119065550                       # number of overall (read+write) accesses
system.cpu1.dcache.overall_accesses::total    119065550                       # number of overall (read+write) accesses
system.cpu1.dcache.ReadReq_miss_rate::.cpu1.data     0.000633                       # miss rate for ReadReq accesses
system.cpu1.dcache.ReadReq_miss_rate::total     0.000633                       # miss rate for ReadReq accesses
[...]
system.l2.overall_accesses::.cpu0.data         248855                       # number of overall (read+write) accesses
system.l2.overall_accesses::.cpu1.inst            361                       # number of overall (read+write) accesses
system.l2.overall_accesses::.cpu1.data          56802                       # number of overall (read+write) accesses
system.l2.overall_accesses::.cpu2.inst            379                       # number of overall (read+write) accesses
system.l2.overall_accesses::.cpu2.data          56136                       # number of overall (read+write) accesses
system.l2.overall_accesses::.cpu3.inst            368                       # number of overall (read+write) accesses
system.l2.overall_accesses::.cpu3.data          66721                       # number of overall (read+write) accesses
system.l2.overall_accesses::.cpu4.inst            354                       # number of overall (read+write) accesses
system.l2.overall_accesses::.cpu4.data          57698                       # number of overall (read+write) accesses
system.l2.overall_accesses::total              490727                       # number of overall (read+write) accesses
system.l2.UpgradeReq_miss_rate::.cpu0.data     0.625000                       # miss rate for UpgradeReq accesses
system.l2.UpgradeReq_miss_rate::total        0.018116                       # miss rate for UpgradeReq accesses
system.l2.ReadExReq_miss_rate::.cpu0.data     0.943298                       # miss rate for ReadExReq accesses
system.l2.ReadExReq_miss_rate::.cpu1.data     0.145247                       # miss rate for ReadExReq accesses
system.l2.ReadExReq_miss_rate::.cpu2.data     0.145952                       # miss rate for ReadExReq accesses
system.l2.ReadExReq_miss_rate::.cpu3.data     0.149867                       # miss rate for ReadExReq accesses
system.l2.ReadExReq_miss_rate::.cpu4.data     0.150263                       # miss rate for ReadExReq accesses
system.l2.ReadExReq_miss_rate::total         0.672394                       # miss rate for ReadExReq accesses
system.l2.ReadCleanReq_miss_rate::.cpu0.inst     0.804782                       # miss rate for ReadCleanReq accesses
system.l2.ReadCleanReq_miss_rate::.cpu1.inst     0.734072                       # miss rate for ReadCleanReq accesses
system.l2.ReadCleanReq_miss_rate::.cpu2.inst     0.100264                       # miss rate for ReadCleanReq accesses
system.l2.ReadCleanReq_miss_rate::.cpu3.inst     0.035326                       # miss rate for ReadCleanReq accesses
system.l2.ReadCleanReq_miss_rate::.cpu4.inst     0.073446                       # miss rate for ReadCleanReq accesses
system.l2.ReadCleanReq_miss_rate::total      0.619934                       # miss rate for ReadCleanReq accesses
system.l2.ReadSharedReq_miss_rate::.cpu0.data     0.847907                       # miss rate for ReadSharedReq accesses
system.l2.ReadSharedReq_miss_rate::.cpu1.data     0.004655                       # miss rate for ReadSharedReq accesses
system.l2.ReadSharedReq_miss_rate::.cpu2.data     0.004506                       # miss rate for ReadSharedReq accesses
system.l2.ReadSharedReq_miss_rate::.cpu3.data     0.007372                       # miss rate for ReadSharedReq accesses
system.l2.ReadSharedReq_miss_rate::.cpu4.data     0.004109                       # miss rate for ReadSharedReq accesses
system.l2.ReadSharedReq_miss_rate::total     0.357973                       # miss rate for ReadSharedReq accesses
system.l2.demand_miss_rate::.cpu0.inst       0.804782                       # miss rate for demand accesses
system.l2.demand_miss_rate::.cpu0.data       0.895485                       # miss rate for demand accesses
system.l2.demand_miss_rate::.cpu1.inst       0.734072                       # miss rate for demand accesses
system.l2.demand_miss_rate::.cpu1.data       0.047410                       # miss rate for demand accesses
system.l2.demand_miss_rate::.cpu2.inst       0.100264                       # miss rate for demand accesses
system.l2.demand_miss_rate::.cpu2.data       0.041952                       # miss rate for demand accesses
system.l2.demand_miss_rate::.cpu3.inst       0.035326                       # miss rate for demand accesses
system.l2.demand_miss_rate::.cpu3.data       0.044409                       # miss rate for demand accesses
system.l2.demand_miss_rate::.cpu4.inst       0.073446                       # miss rate for demand accesses
system.l2.demand_miss_rate::.cpu4.data       0.041145                       # miss rate for demand accesses
system.l2.demand_miss_rate::total            0.480980                       # miss rate for demand accesses
system.l2.overall_miss_rate::.cpu0.inst      0.804782                       # miss rate for overall accesses
system.l2.overall_miss_rate::.cpu0.data      0.895485                       # miss rate for overall accesses
system.l2.overall_miss_rate::.cpu1.inst      0.734072                       # miss rate for overall accesses
system.l2.overall_miss_rate::.cpu1.data      0.047410                       # miss rate for overall accesses
system.l2.overall_miss_rate::.cpu2.inst      0.100264                       # miss rate for overall accesses
system.l2.overall_miss_rate::.cpu2.data      0.041952                       # miss rate for overall accesses
system.l2.overall_miss_rate::.cpu3.inst      0.035326                       # miss rate for overall accesses
system.l2.overall_miss_rate::.cpu3.data      0.044409                       # miss rate for overall accesses
system.l2.overall_miss_rate::.cpu4.inst      0.073446                       # miss rate for overall accesses
system.l2.overall_miss_rate::.cpu4.data      0.041145                       # miss rate for overall accesses
system.l2.overall_miss_rate::total           0.480980                       # miss rate for overall accesses
system.l2.blocked_cycles::no_mshrs                  0                       # number of cycles access was blocked
system.l2.blocked_cycles::no_targets                0                       # number of cycles access was blocked
system.l2.blocked::no_mshrs                         0                       # number of cycles access was blocked
system.l2.blocked::no_targets                       0                       # number of cycles access was blocked
system.l2.avg_blocked_cycles::no_mshrs            nan                       # average number of cycles each access was blocked
system.l2.avg_blocked_cycles::no_targets          nan                       # average number of cycles each access was blocked
system.l2.writebacks::.writebacks              157823                       # number of writebacks
system.l2.writebacks::total                    157823                       # number of writebacks
system.l2.replacements                         170943                       # number of replacements
system.membus.snoop_filter.tot_requests        416179                       # Total number of requests made to the snoop filter.
system.membus.snoop_filter.hit_single_requests       180232                       # Number of requests hitting in the snoop filter with a single holder of the requested data.
system.membus.snoop_filter.hit_multi_requests            0                       # Number of requests hitting in the snoop filter with multiple (>1) holders of the requested data.
system.membus.snoop_filter.tot_snoops               0                       # Total number of snoops made to the snoop filter.
system.membus.snoop_filter.hit_single_snoops            0                       # Number of snoops hitting in the snoop filter with a single holder of the requested data.
system.membus.snoop_filter.hit_multi_snoops            0                       # Number of snoops hitting in the snoop filter with multiple (>1) holders of the requested data.
system.membus.pwrStateResidencyTicks::UNDEFINED 270549966500                       # Cumulative time (in ticks) in various power states
system.membus.trans_dist::ReadResp             109472                       # Transaction distribution
system.membus.trans_dist::WritebackDirty       157823                       # Transaction distribution
system.membus.trans_dist::CleanEvict            10475                       # Transaction distribution
system.membus.trans_dist::UpgradeReq            11732                       # Transaction distribution
system.membus.trans_dist::UpgradeResp               5                       # Transaction distribution
system.membus.trans_dist::ReadExReq            126677                       # Transaction distribution
system.membus.trans_dist::ReadExResp           126558                       # Transaction distribution
system.membus.trans_dist::ReadSharedReq        109472                       # Transaction distribution
system.membus.pkt_count_system.l2.mem_side::system.mem_ctrls.port       652214                       # Packet count per connected master and slave (bytes)
system.membus.pkt_count_system.l2.mem_side::total       652214                       # Packet count per connected master and slave (bytes)
system.membus.pkt_count::total                 652214                       # Packet count per connected master and slave (bytes)
system.membus.pkt_size_system.l2.mem_side::system.mem_ctrls.port     25206592                       # Cumulative packet size per connected master and slave (bytes)
system.membus.pkt_size_system.l2.mem_side::total     25206592                       # Cumulative packet size per connected master and slave (bytes)
system.membus.pkt_size::total                25206592                       # Cumulative packet size per connected master and slave (bytes)
system.membus.snoops                                0                       # Total snoops (count)
system.membus.snoopTraffic                          0                       # Total snoop traffic (bytes)
system.membus.snoop_fanout::samples            247881                       # Request fanout histogram
system.membus.snoop_fanout::mean                    0                       # Request fanout histogram
system.membus.snoop_fanout::stdev                   0                       # Request fanout histogram
system.membus.snoop_fanout::underflows              0      0.00%      0.00% # Request fanout histogram
system.membus.snoop_fanout::0                  247881    100.00%    100.00% # Request fanout histogram
system.membus.snoop_fanout::1                       0      0.00%    100.00% # Request fanout histogram
system.membus.snoop_fanout::overflows               0      0.00%    100.00% # Request fanout histogram
system.membus.snoop_fanout::min_value               0                       # Request fanout histogram
system.membus.snoop_fanout::max_value               0                       # Request fanout histogram
system.membus.snoop_fanout::total              247881                       # Request fanout histogram
system.tol2bus.snoop_filter.tot_requests      1045273                       # Total number of requests made to the snoop filter.
system.tol2bus.snoop_filter.hit_single_requests       519053                       # Number of requests hitting in the snoop filter with a single holder of the requested data.
system.tol2bus.snoop_filter.hit_multi_requests        45763                       # Number of requests hitting in the snoop filter with multiple (>1) holders of the requested data.
system.tol2bus.snoop_filter.tot_snoops           2712                       # Total number of snoops made to the snoop filter.
system.tol2bus.snoop_filter.hit_single_snoops         2151                       # Number of snoops hitting in the snoop filter with a single holder of the requested data.
system.tol2bus.snoop_filter.hit_multi_snoops          561                       # Number of snoops hitting in the snoop filter with multiple (>1) holders of the requested data.
system.tol2bus.pwrStateResidencyTicks::UNDEFINED 270549966500                       # Cumulative time (in ticks) in various power states
system.tol2bus.trans_dist::ReadResp            334418                       # Transaction distribution
system.tol2bus.trans_dist::WritebackDirty       454808                       # Transaction distribution
system.tol2bus.trans_dist::WritebackClean         2742                       # Transaction distribution
system.tol2bus.trans_dist::CleanEvict           48176                       # Transaction distribution
system.tol2bus.trans_dist::UpgradeReq           12003                       # Transaction distribution
system.tol2bus.trans_dist::UpgradeResp          12003                       # Transaction distribution
system.tol2bus.trans_dist::ReadExReq           193126                       # Transaction distribution
system.tol2bus.trans_dist::ReadExResp          193126                       # Transaction distribution
system.tol2bus.trans_dist::ReadCleanReq          4515                       # Transaction distribution
system.tol2bus.trans_dist::ReadSharedReq       329903                       # Transaction distribution
system.tol2bus.pkt_count_system.cpu0.icache.mem_side::system.l2.cpu_side         8647                       # Packet count per connected master and slave (bytes)
system.tol2bus.pkt_count_system.cpu0.dcache.mem_side::system.l2.cpu_side       746047                       # Packet count per connected master and slave (bytes)
system.tol2bus.pkt_count_system.cpu1.icache.mem_side::system.l2.cpu_side          769                       # Packet count per connected master and slave (bytes)
system.tol2bus.pkt_count_system.cpu1.dcache.mem_side::system.l2.cpu_side       221418                       # Packet count per connected master and slave (bytes)
system.tol2bus.pkt_count_system.cpu2.icache.mem_side::system.l2.cpu_side          815                       # Packet count per connected master and slave (bytes)
system.tol2bus.pkt_count_system.cpu2.dcache.mem_side::system.l2.cpu_side       216114                       # Packet count per connected master and slave (bytes)
system.tol2bus.pkt_count_system.cpu3.icache.mem_side::system.l2.cpu_side          790                       # Packet count per connected master and slave (bytes)
system.tol2bus.pkt_count_system.cpu3.dcache.mem_side::system.l2.cpu_side       209623                       # Packet count per connected master and slave (bytes)
system.tol2bus.pkt_count_system.cpu4.icache.mem_side::system.l2.cpu_side          751                       # Packet count per connected master and slave (bytes)
system.tol2bus.pkt_count_system.cpu4.dcache.mem_side::system.l2.cpu_side       179846                       # Packet count per connected master and slave (bytes)
system.tol2bus.pkt_count::total               1584820                       # Packet count per connected master and slave (bytes)
system.tol2bus.pkt_size_system.cpu0.icache.mem_side::system.l2.cpu_side       358016                       # Cumulative packet size per connected master and slave (bytes)
system.tol2bus.pkt_size_system.cpu0.dcache.mem_side::system.l2.cpu_side     30740992                       # Cumulative packet size per connected master and slave (bytes)
system.tol2bus.pkt_size_system.cpu1.icache.mem_side::system.l2.cpu_side        26112                       # Cumulative packet size per connected master and slave (bytes)
system.tol2bus.pkt_size_system.cpu1.dcache.mem_side::system.l2.cpu_side      8300672                       # Cumulative packet size per connected master and slave (bytes)
system.tol2bus.pkt_size_system.cpu2.icache.mem_side::system.l2.cpu_side        27904                       # Cumulative packet size per connected master and slave (bytes)
system.tol2bus.pkt_size_system.cpu2.dcache.mem_side::system.l2.cpu_side      8119232                       # Cumulative packet size per connected master and slave (bytes)
system.tol2bus.pkt_size_system.cpu3.icache.mem_side::system.l2.cpu_side        27008                       # Cumulative packet size per connected master and slave (bytes)
system.tol2bus.pkt_size_system.cpu3.dcache.mem_side::system.l2.cpu_side      8227840                       # Cumulative packet size per connected master and slave (bytes)
system.tol2bus.pkt_size_system.cpu4.icache.mem_side::system.l2.cpu_side        25408                       # Cumulative packet size per connected master and slave (bytes)
system.tol2bus.pkt_size_system.cpu4.dcache.mem_side::system.l2.cpu_side      7192832                       # Cumulative packet size per connected master and slave (bytes)
system.tol2bus.pkt_size::total               63046016                       # Cumulative packet size per connected master and slave (bytes)
system.tol2bus.snoops                          170943                       # Total snoops (count)
system.tol2bus.snoopTraffic                  10100672                       # Total snoop traffic (bytes)
system.tol2bus.snoop_fanout::samples           710490                       # Request fanout histogram
system.tol2bus.snoop_fanout::mean            0.105444                       # Request fanout histogram
system.tol2bus.snoop_fanout::stdev           0.394086                       # Request fanout histogram
system.tol2bus.snoop_fanout::underflows             0      0.00%      0.00% # Request fanout histogram
system.tol2bus.snoop_fanout::0                 648754     91.31%     91.31% # Request fanout histogram
system.tol2bus.snoop_fanout::1                  55131      7.76%     99.07% # Request fanout histogram
system.tol2bus.snoop_fanout::2                   1873      0.26%     99.33% # Request fanout histogram
system.tol2bus.snoop_fanout::3                   2949      0.42%     99.75% # Request fanout histogram
system.tol2bus.snoop_fanout::4                   1722      0.24%     99.99% # Request fanout histogram
system.tol2bus.snoop_fanout::5                     61      0.01%    100.00% # Request fanout histogram
system.tol2bus.snoop_fanout::6                      0      0.00%    100.00% # Request fanout histogram
system.tol2bus.snoop_fanout::7                      0      0.00%    100.00% # Request fanout histogram
system.tol2bus.snoop_fanout::8                      0      0.00%    100.00% # Request fanout histogram
system.tol2bus.snoop_fanout::9                      0      0.00%    100.00% # Request fanout histogram
system.tol2bus.snoop_fanout::10                     0      0.00%    100.00% # Request fanout histogram
system.tol2bus.snoop_fanout::11                     0      0.00%    100.00% # Request fanout histogram
system.tol2bus.snoop_fanout::12                     0      0.00%    100.00% # Request fanout histogram
system.tol2bus.snoop_fanout::13                     0      0.00%    100.00% # Request fanout histogram
system.tol2bus.snoop_fanout::14                     0      0.00%    100.00% # Request fanout histogram
system.tol2bus.snoop_fanout::15                     0      0.00%    100.00% # Request fanout histogram
system.tol2bus.snoop_fanout::16                     0      0.00%    100.00% # Request fanout histogram
system.tol2bus.snoop_fanout::17                     0      0.00%    100.00% # Request fanout histogram
system.tol2bus.snoop_fanout::18                     0      0.00%    100.00% # Request fanout histogram
system.tol2bus.snoop_fanout::19                     0      0.00%    100.00% # Request fanout histogram
system.tol2bus.snoop_fanout::20                     0      0.00%    100.00% # Request fanout histogram
system.tol2bus.snoop_fanout::overflows              0      0.00%    100.00% # Request fanout histogram
system.tol2bus.snoop_fanout::min_value              0                       # Request fanout histogram
system.tol2bus.snoop_fanout::max_value              5                       # Request fanout histogram
system.tol2bus.snoop_fanout::total             710490                       # Request fanout histogram

---------- End Simulation Statistics   ----------
